!uks pbe nori aug-pc-4 grid5 nofinalgrid verytightscf

%maxcore 1500

%pal nprocs 4 end

%scf
	maxiter 200
end
%elprop
	dipole true
	 polar 1
	 maxiter 200
end

* xyz 0 1
B 0.0000000000 0.0000000000 0.0000000000
Cl 0.0000000000 0.0000000000 1.7353000000
H 0.0000000000 1.0532000000 -0.5574000000
H 0.0000000000 -1.0532000000 -0.5574000000
*
