!uks pbe nori aug-pc-4 grid5 nofinalgrid verytightscf

%maxcore 1500

%pal nprocs 4 end

%scf
	maxiter 200
end
%elprop
	dipole true
	 polar 1
	 maxiter 200
end

* xyz 0 1
P 0.0000000000 0.0000000000 0.0000000000
H 0.0000000000 0.0000000000 1.4183490000
C 1.6600864825 0.0000000000 -0.2063414550
H 2.3794407562 0.0000000000 0.6006795204
H 2.0634774886 0.0000000000 -1.2113161293
*
