!uks pbe nori aug-pc-4 grid5 nofinalgrid verytightscf

%maxcore 1500

%pal nprocs 4 end

%scf
	maxiter 200
end
%elprop
	dipole true
	 polar 1
	 maxiter 200
end

* xyz 0 1
C -0.0503 0.6685 0.0000
O -0.0503 -0.7585 0.0000
H -1.0807 1.0417 0.0000
H 0.4650 1.0417 0.8924
H 0.4650 1.0417 -0.8924
H 0.8544 -1.0677 0.0000
*
