!uks pbe nori aug-pc-4 grid5 nofinalgrid verytightscf

%maxcore 1500

%pal nprocs 4 end

%scf
	maxiter 200
end
%elprop
	dipole true
	 polar 1
	 maxiter 200
end

* xyz 0 1
C -0.8500 -0.0344 -0.2000
S 0.9000 -0.5125 -0.1219
H 1.4219 0.5781 0.4250
H -0.9406 0.8688 -0.8219
H -1.4219 -0.8688 -0.6469
H -1.2031 0.1656 0.8219
*
