!uks pbe nori aug-pc-4 grid5 nofinalgrid verytightscf

%maxcore 1500

%pal nprocs 4 end

%scf
	maxiter 200
end
%elprop
	dipole true
	 polar 1
	 maxiter 200
end

* xyz 0 2
C 0.0000000000 0.0000000000 -0.4906000000
N 0.0000000000 0.0000000000 0.7226000000
H 0.0000000000 0.9342000000 -1.0572000000
H 0.0000000000 -0.9342000000 -1.0572000000
*
