!uks pbe nori aug-pc-4 grid5 nofinalgrid verytightscf

%maxcore 1500

%pal nprocs 4 end

%scf
	maxiter 200
end
%elprop
	dipole true
	 polar 1
	 maxiter 200
end

* xyz 0 1
C 0.0000 0.4165 0.0000
O 1.1942 0.2217 0.0000
N -0.9373 -0.5551 0.0000
H -0.4299 1.4182 0.0000
H -0.6608 -1.5171 0.0000
H -1.9020 -0.2881 0.0000
*
