!uks pbe nori aug-pc-4 grid5 nofinalgrid verytightscf

%maxcore 1500

%pal nprocs 4 end

%scf
	maxiter 200
end
%elprop
	dipole true
	 polar 1
	 maxiter 200
end

* xyz 0 1
Li 0.0000000000 0.0000000000 -1.4298000000
B 0.0000000000 0.0000000000 0.5063000000
H 0.0000000000 0.0000000000 1.6973000000
H 0.0000000000 1.1405000000 0.0202000000
H 0.9877000000 -0.5702000000 0.0202000000
H -0.9877000000 -0.5702000000 0.0202000000
*
