!uks pbe nori aug-pc-4 grid5 nofinalgrid verytightscf

%maxcore 1500

%pal nprocs 4 end

%scf
	maxiter 200
end
%elprop
	dipole true
	 polar 1
	 maxiter 200
end

* xyz 0 2
N 0.0000002327 -0.0000000061 -1.2737003115
C -0.0000004964 0.0000000123 -0.0271008600
O 0.0000002638 -0.0000000061 1.1312011715
*
