!uks pbe nori aug-pc-4 grid5 nofinalgrid verytightscf

%maxcore 1500

%pal nprocs 4 end

%scf
	maxiter 200
end
%elprop
	dipole true
	 polar 1
	 maxiter 200
end

* xyz 0 1
Cl 0.0000000000 0.0000000000 0.0000000000
N 0.0000000000 0.0000000000 1.7475500000
H 0.9877064288 0.0000000000 1.9857191054
H -0.3322887804 -0.9301334032 1.9857191227
*
