!uks pbe nori aug-pc-4 grid5 nofinalgrid verytightscf

%maxcore 1500

%pal nprocs 4 end

%scf
	maxiter 200
end
%elprop
	dipole true
	 polar 1
	 maxiter 200
end

* xyz 0 1
P 0.0000000000 1.1100000000 -0.0858000000
P 0.0000000000 -1.1100000000 -0.0858000000
H -0.2026000000 1.3478000000 1.2905000000
H 1.4045000000 1.2216000000 -0.0032000000
H 0.2026000000 -1.3478000000 1.2905000000
H -1.4045000000 -1.2216000000 -0.0032000000
*
