!uks pbe nori aug-pc-4 grid5 nofinalgrid verytightscf

%maxcore 1500

%pal nprocs 4 end

%scf
	maxiter 200
end
%elprop
	dipole true
	 polar 1
	 maxiter 200
end

* xyz 0 1
P 0.0000000000 0.0000000000 0.0000000000
H 0.0000000000 0.0000000000 1.4141500000
H 1.4127052064 0.0000000000 -0.0639079205
O -0.2628101077 1.6275926322 -0.2511898901
H -0.9542069755 1.7138775927 -0.9120164663
*
