!uks pbe nori aug-pc-4 grid5 nofinalgrid verytightscf

%maxcore 1500

%pal nprocs 4 end

%scf
	maxiter 200
end
%elprop
	dipole true
	 polar 1
	 maxiter 200
end

* xyz 0 1
P 0.0000000000 0.0000000000 -0.3836153961
H -1.2521120981 0.0000000000 -1.0264054293
H 0.6260878053 -1.0843997178 -1.0264202208
H 0.6260878053 1.0843997178 -1.0264202208
O 0.0000000000 0.0000000008 1.1041846038
*
